* NGSPICE file created from heichips25_snitch_wrapper.ext - technology: ihp-sg13g2

* Black-box entry subcircuit for sg13g2_decap_8 abstract view
.subckt sg13g2_decap_8 VDD VSS
.ends

* Black-box entry subcircuit for sg13g2_fill_1 abstract view
.subckt sg13g2_fill_1 VDD VSS
.ends

* Black-box entry subcircuit for sg13g2_a22oi_1 abstract view
.subckt sg13g2_a22oi_1 Y B1 B2 A2 A1 VDD VSS
.ends

* Black-box entry subcircuit for sg13g2_o21ai_1 abstract view
.subckt sg13g2_o21ai_1 B1 VDD Y VSS A1 A2
.ends

* Black-box entry subcircuit for sg13g2_nor2_1 abstract view
.subckt sg13g2_nor2_1 A B Y VDD VSS
.ends

* Black-box entry subcircuit for sg13g2_decap_4 abstract view
.subckt sg13g2_decap_4 VDD VSS
.ends

* Black-box entry subcircuit for sg13g2_fill_2 abstract view
.subckt sg13g2_fill_2 VDD VSS
.ends

* Black-box entry subcircuit for sg13g2_inv_1 abstract view
.subckt sg13g2_inv_1 VDD Y A VSS
.ends

* Black-box entry subcircuit for sg13g2_mux2_1 abstract view
.subckt sg13g2_mux2_1 A0 A1 S X VDD VSS
.ends

* Black-box entry subcircuit for sg13g2_buf_8 abstract view
.subckt sg13g2_buf_8 A X VDD VSS
.ends

* Black-box entry subcircuit for sg13g2_a21oi_1 abstract view
.subckt sg13g2_a21oi_1 VSS VDD A1 A2 Y B1
.ends

* Black-box entry subcircuit for sg13g2_dlygate4sd3_1 abstract view
.subckt sg13g2_dlygate4sd3_1 A VDD VSS X
.ends

* Black-box entry subcircuit for sg13g2_dfrbpq_1 abstract view
.subckt sg13g2_dfrbpq_1 RESET_B VSS VDD D Q CLK
.ends

* Black-box entry subcircuit for sg13g2_buf_2 abstract view
.subckt sg13g2_buf_2 A X VDD VSS
.ends

* Black-box entry subcircuit for sg13g2_a221oi_1 abstract view
.subckt sg13g2_a221oi_1 VDD VSS B2 C1 B1 A1 Y A2
.ends

* Black-box entry subcircuit for sg13g2_nor3_2 abstract view
.subckt sg13g2_nor3_2 A B C Y VDD VSS
.ends

* Black-box entry subcircuit for sg13g2_nand2_1 abstract view
.subckt sg13g2_nand2_1 Y A B VDD VSS
.ends

* Black-box entry subcircuit for sg13g2_nand3_1 abstract view
.subckt sg13g2_nand3_1 B C A Y VDD VSS
.ends

* Black-box entry subcircuit for sg13g2_nor4_2 abstract view
.subckt sg13g2_nor4_2 A B C Y VSS VDD D
.ends

* Black-box entry subcircuit for sg13g2_buf_1 abstract view
.subckt sg13g2_buf_1 A X VDD VSS
.ends

* Black-box entry subcircuit for sg13g2_and4_1 abstract view
.subckt sg13g2_and4_1 A B C D X VDD VSS
.ends

* Black-box entry subcircuit for sg13g2_a21o_1 abstract view
.subckt sg13g2_a21o_1 A2 A1 B1 X VDD VSS
.ends

* Black-box entry subcircuit for sg13g2_and2_1 abstract view
.subckt sg13g2_and2_1 A B X VDD VSS
.ends

* Black-box entry subcircuit for sg13g2_dfrbpq_2 abstract view
.subckt sg13g2_dfrbpq_2 RESET_B VSS VDD D Q CLK
.ends

* Black-box entry subcircuit for sg13g2_xnor2_1 abstract view
.subckt sg13g2_xnor2_1 Y A B VDD VSS
.ends

* Black-box entry subcircuit for sg13g2_nand3b_1 abstract view
.subckt sg13g2_nand3b_1 B C Y VDD VSS A_N
.ends

* Black-box entry subcircuit for sg13g2_mux4_1 abstract view
.subckt sg13g2_mux4_1 S0 A0 A1 A2 A3 S1 X VDD VSS
.ends

* Black-box entry subcircuit for sg13g2_nand2b_2 abstract view
.subckt sg13g2_nand2b_2 Y B VDD VSS A_N
.ends

* Black-box entry subcircuit for sg13g2_or3_1 abstract view
.subckt sg13g2_or3_1 A B C X VDD VSS
.ends

* Black-box entry subcircuit for sg13g2_or4_1 abstract view
.subckt sg13g2_or4_1 A B C D X VDD VSS
.ends

* Black-box entry subcircuit for sg13g2_nor3_1 abstract view
.subckt sg13g2_nor3_1 A B C Y VDD VSS
.ends

* Black-box entry subcircuit for sg13g2_nand2b_1 abstract view
.subckt sg13g2_nand2b_1 Y B A_N VDD VSS
.ends

* Black-box entry subcircuit for sg13g2_nand2_2 abstract view
.subckt sg13g2_nand2_2 Y A B VDD VSS
.ends

* Black-box entry subcircuit for sg13g2_xor2_1 abstract view
.subckt sg13g2_xor2_1 B A X VDD VSS
.ends

* Black-box entry subcircuit for sg13g2_and2_2 abstract view
.subckt sg13g2_and2_2 A B X VDD VSS
.ends

* Black-box entry subcircuit for sg13g2_nor4_1 abstract view
.subckt sg13g2_nor4_1 A B C D Y VDD VSS
.ends

* Black-box entry subcircuit for sg13g2_inv_2 abstract view
.subckt sg13g2_inv_2 Y A VDD VSS
.ends

* Black-box entry subcircuit for sg13g2_nand4_1 abstract view
.subckt sg13g2_nand4_1 B C A Y VDD VSS D
.ends

* Black-box entry subcircuit for sg13g2_or2_1 abstract view
.subckt sg13g2_or2_1 VSS VDD X B A
.ends

* Black-box entry subcircuit for sg13g2_inv_4 abstract view
.subckt sg13g2_inv_4 A Y VDD VSS
.ends

* Black-box entry subcircuit for sg13g2_a21oi_2 abstract view
.subckt sg13g2_a21oi_2 VSS VDD B1 Y A2 A1
.ends

* Black-box entry subcircuit for sg13g2_nor2_2 abstract view
.subckt sg13g2_nor2_2 A B Y VDD VSS
.ends

* Black-box entry subcircuit for sg13g2_nor2b_1 abstract view
.subckt sg13g2_nor2b_1 A B_N Y VDD VSS
.ends

* Black-box entry subcircuit for sg13g2_buf_16 abstract view
.subckt sg13g2_buf_16 X A VDD VSS
.ends

* Black-box entry subcircuit for sg13g2_nor2b_2 abstract view
.subckt sg13g2_nor2b_2 A B_N Y VDD VSS
.ends

* Black-box entry subcircuit for sg13g2_and3_1 abstract view
.subckt sg13g2_and3_1 X A B C VDD VSS
.ends

* Black-box entry subcircuit for sg13g2_a21o_2 abstract view
.subckt sg13g2_a21o_2 A2 A1 B1 X VDD VSS
.ends

* Black-box entry subcircuit for sg13g2_mux2_2 abstract view
.subckt sg13g2_mux2_2 A0 A1 S X VDD VSS
.ends

* Black-box entry subcircuit for sg13g2_inv_8 abstract view
.subckt sg13g2_inv_8 Y A VDD VSS
.ends

* Black-box entry subcircuit for sg13g2_and3_2 abstract view
.subckt sg13g2_and3_2 X A B C VDD VSS
.ends

* Black-box entry subcircuit for sg13g2_and4_2 abstract view
.subckt sg13g2_and4_2 A B C D X VDD VSS
.ends

* Black-box entry subcircuit for sg13g2_tiehi abstract view
.subckt sg13g2_tiehi VDD VSS L_HI
.ends

.subckt heichips25_snitch_wrapper VGND VPWR clk ena rst_n ui_in[0] ui_in[1] ui_in[2]
+ ui_in[3] ui_in[4] ui_in[5] ui_in[6] ui_in[7] uio_in[0] uio_in[1] uio_in[2] uio_in[3]
+ uio_in[4] uio_in[5] uio_in[6] uio_in[7] uio_oe[0] uio_oe[1] uio_oe[2] uio_oe[3]
+ uio_oe[4] uio_oe[5] uio_oe[6] uio_oe[7] uio_out[0] uio_out[1] uio_out[2] uio_out[3]
+ uio_out[4] uio_out[5] uio_out[6] uio_out[7] uo_out[0] uo_out[1] uo_out[2] uo_out[3]
+ uo_out[4] uo_out[5] uo_out[6] uo_out[7]
XFILLER_95_840 VPWR VGND sg13g2_decap_8
XFILLER_67_520 VPWR VGND sg13g2_fill_1
Xi_snitch.pc_d\[7\]_sg13g2_a21o_1_X_B1_sg13g2_a21oi_1_Y_A1_sg13g2_nand2_1_Y_B_sg13g2_nand2_1_Y_A_sg13g2_a22oi_1_Y
+ i_snitch.pc_d\[7\]_sg13g2_a21o_1_X_B1_sg13g2_a21oi_1_Y_A1_sg13g2_nand2_1_Y_B_sg13g2_nand2_1_Y_A
+ i_snitch.pc_d\[7\]_sg13g2_a21o_1_X_B1_sg13g2_a21oi_1_Y_A1_sg13g2_nand2_1_Y_B_sg13g2_nand2_1_Y_A_sg13g2_a22oi_1_Y_B1
+ net2699 i_snitch.pc_d\[7\]_sg13g2_a21o_1_X_B1_sg13g2_a21oi_1_Y_A1_sg13g2_nand2_1_Y_B_sg13g2_nand2_1_Y_A_sg13g2_a22oi_1_Y_A2
+ net2612 VPWR VGND sg13g2_a22oi_1
Xi_snitch.i_snitch_regfile.mem\[216\]_sg13g2_dfrbpq_1_Q_D_sg13g2_o21ai_1_Y i_snitch.i_snitch_regfile.mem\[216\]_sg13g2_dfrbpq_1_Q_D_sg13g2_o21ai_1_Y_B1
+ VPWR i_snitch.i_snitch_regfile.mem\[216\]_sg13g2_dfrbpq_1_Q_D VGND net2335 net2257
+ sg13g2_o21ai_1
Xi_inst_register.spill_register_flushable_i.gen_spill_reg.b_full_q_sg13g2_dfrbpq_1_Q_D_sg13g2_nor2_1_Y
+ i_inst_register.spill_register_flushable_i.gen_spill_reg.b_full_q_sg13g2_dfrbpq_1_Q_D_sg13g2_nor2_1_Y_A
+ net125 i_inst_register.spill_register_flushable_i.gen_spill_reg.b_full_q_sg13g2_dfrbpq_1_Q_D
+ VPWR VGND sg13g2_nor2_1
XFILLER_54_258 VPWR VGND sg13g2_decap_4
XFILLER_23_623 VPWR VGND sg13g2_decap_8
Xi_snitch.pc_d\[9\]_sg13g2_o21ai_1_Y_A2_sg13g2_a22oi_1_Y_A2_sg13g2_nand2_1_Y_A_sg13g2_a22oi_1_Y
+ i_snitch.pc_d\[9\]_sg13g2_o21ai_1_Y_A2_sg13g2_a22oi_1_Y_A2_sg13g2_nand2_1_Y_A i_snitch.pc_d\[9\]_sg13g2_o21ai_1_Y_A2_sg13g2_a22oi_1_Y_A2_sg13g2_nand2_1_Y_A_sg13g2_a22oi_1_Y_B1
+ net2547 i_snitch.pc_d\[9\]_sg13g2_o21ai_1_Y_A2_sg13g2_a22oi_1_Y_A2_sg13g2_nand2_1_Y_A_sg13g2_a22oi_1_Y_A2
+ net2613 VPWR VGND sg13g2_a22oi_1
XFILLER_23_634 VPWR VGND sg13g2_fill_2
Xi_req_arb.gen_arbiter.req_d\[1\]_sg13g2_or2_1_X_B_sg13g2_nor4_1_Y_C_sg13g2_a21o_1_X_B1_sg13g2_a21oi_1_Y_B1_sg13g2_a21oi_1_Y_B1_sg13g2_a221oi_1_C1_A2_sg13g2_inv_1_Y
+ VPWR i_req_arb.gen_arbiter.req_d\[1\]_sg13g2_or2_1_X_B_sg13g2_nor4_1_Y_C_sg13g2_a21o_1_X_B1_sg13g2_a21oi_1_Y_B1_sg13g2_a21oi_1_Y_B1_sg13g2_a221oi_1_C1_A2
+ i_req_arb.gen_arbiter.req_d\[1\]_sg13g2_or2_1_X_B_sg13g2_nor4_1_Y_C_sg13g2_a21o_1_X_A2_sg13g2_nor2b_1_Y_B_N_sg13g2_nand4_1_D_Y_sg13g2_nor3_1_C_B
+ VGND sg13g2_inv_1
XFILLER_50_464 VPWR VGND sg13g2_decap_8
XFILLER_10_317 VPWR VGND sg13g2_decap_4
XFILLER_10_306 VPWR VGND sg13g2_fill_2
XFILLER_22_199 VPWR VGND sg13g2_decap_8
Xi_snitch.i_snitch_regfile.mem\[129\]_sg13g2_a21oi_1_A1_Y_sg13g2_o21ai_1_A1 net2998
+ VPWR i_snitch.i_snitch_regfile.mem\[129\]_sg13g2_a21oi_1_A1_Y_sg13g2_o21ai_1_A1_Y
+ VGND i_snitch.i_snitch_regfile.mem\[129\]_sg13g2_a21oi_1_A1_Y i_snitch.i_snitch_regfile.mem\[33\]_sg13g2_a221oi_1_A1_Y
+ sg13g2_o21ai_1
Xi_req_register.spill_register_flushable_i.gen_spill_reg.b_data_q\[21\]_sg13g2_mux2_1_A1
+ i_req_register.spill_register_flushable_i.gen_spill_reg.a_data_q\[21\] net584 net2621
+ i_req_register.spill_register_flushable_i.gen_spill_reg.b_data_q\[21\]_sg13g2_dfrbpq_1_Q_D
+ VPWR VGND sg13g2_mux2_1
Xfanout3209 net3210 net3209 VPWR VGND sg13g2_buf_8
Xi_snitch.i_snitch_regfile.mem\[355\]_sg13g2_a21oi_1_A1 VGND VPWR i_snitch.i_snitch_regfile.mem\[355\]
+ net3121 i_snitch.i_snitch_regfile.mem\[355\]_sg13g2_a21oi_1_A1_Y net2940 sg13g2_a21oi_1
XFILLER_105_945 VPWR VGND sg13g2_decap_8
Xfanout2508 net2511 net2508 VPWR VGND sg13g2_buf_8
XFILLER_2_527 VPWR VGND sg13g2_fill_1
XFILLER_104_444 VPWR VGND sg13g2_fill_1
Xfanout2519 net2520 net2519 VPWR VGND sg13g2_buf_8
Xhold395 i_req_register.spill_register_flushable_i.gen_spill_reg.b_data_q\[45\]_sg13g2_dfrbpq_1_Q_D
+ VPWR VGND net427 sg13g2_dlygate4sd3_1
XFILLER_77_339 VPWR VGND sg13g2_fill_1
Xi_snitch.pc_d\[26\]_sg13g2_a21oi_1_Y_B1_sg13g2_a221oi_1_Y_B1_sg13g2_a22oi_1_B1 i_snitch.pc_d\[26\]_sg13g2_a21oi_1_Y_B1_sg13g2_a221oi_1_Y_B1_sg13g2_a22oi_1_B1_Y
+ i_snitch.pc_d\[26\]_sg13g2_a21oi_1_Y_B1_sg13g2_a221oi_1_Y_B1 net2630 net2853 net3086
+ VPWR VGND sg13g2_a22oi_1
XFILLER_93_14 VPWR VGND sg13g2_decap_8
XFILLER_86_895 VPWR VGND sg13g2_decap_8
XFILLER_85_361 VPWR VGND sg13g2_fill_2
Xhold1051 data_pdata\[28\] VPWR VGND net1083 sg13g2_dlygate4sd3_1
Xhold1040 i_snitch.i_snitch_regfile.mem\[102\] VPWR VGND net1072 sg13g2_dlygate4sd3_1
Xhold1073 i_inst_register.spill_register_flushable_i.gen_spill_reg.a_data_q\[13\]_sg13g2_dfrbpq_1_Q_D
+ VPWR VGND net1105 sg13g2_dlygate4sd3_1
XFILLER_73_534 VPWR VGND sg13g2_fill_1
XFILLER_45_236 VPWR VGND sg13g2_decap_4
Xhold1062 i_snitch.i_snitch_regfile.mem\[368\] VPWR VGND net1094 sg13g2_dlygate4sd3_1
Xhold1084 i_snitch.i_snitch_regfile.mem\[142\] VPWR VGND net1116 sg13g2_dlygate4sd3_1
Xhold1095 i_inst_register.spill_register_flushable_i.gen_spill_reg.a_data_q\[22\]_sg13g2_dfrbpq_1_Q_D
+ VPWR VGND net1127 sg13g2_dlygate4sd3_1
XFILLER_41_475 VPWR VGND sg13g2_fill_1
Xi_snitch.i_snitch_regfile.mem\[95\]_sg13g2_dfrbpq_1_Q_D_sg13g2_o21ai_1_Y i_snitch.i_snitch_regfile.mem\[95\]_sg13g2_dfrbpq_1_Q_D_sg13g2_o21ai_1_Y_B1
+ VPWR i_snitch.i_snitch_regfile.mem\[95\]_sg13g2_dfrbpq_1_Q_D VGND net2243 net2357
+ sg13g2_o21ai_1
Xi_req_register.spill_register_flushable_i.gen_spill_reg.b_data_q\[24\]_sg13g2_dfrbpq_1_Q
+ net3198 VGND VPWR net583 i_req_register.spill_register_flushable_i.gen_spill_reg.b_data_q\[24\]
+ clknet_leaf_27_clk sg13g2_dfrbpq_1
Xrebuffer7 i_snitch.i_snitch_regfile.mem\[47\]_sg13g2_a21oi_1_A1_Y_sg13g2_a221oi_1_B2_Y_sg13g2_a22oi_1_B2_Y_sg13g2_and2_1_B_X_sg13g2_nand4_1_D_Y_sg13g2_nand2_1_B_Y_sg13g2_nand4_1_C_Y
+ net39 VPWR VGND sg13g2_buf_2
XFILLER_47_8 VPWR VGND sg13g2_fill_1
Xi_snitch.i_snitch_regfile.mem\[374\]_sg13g2_a22oi_1_B2 i_snitch.i_snitch_regfile.mem\[374\]_sg13g2_dfrbpq_1_Q_D_sg13g2_o21ai_1_Y_B1
+ net2396 net753 net2652 net2882 VPWR VGND sg13g2_a22oi_1
XFILLER_3_56 VPWR VGND sg13g2_decap_8
Xi_snitch.i_snitch_regfile.mem\[391\]_sg13g2_inv_1_A_Y_sg13g2_a221oi_1_A1 VPWR VGND
+ i_snitch.i_snitch_regfile.mem\[487\]_sg13g2_a21oi_1_A1_Y i_snitch.i_snitch_regfile.mem\[423\]_sg13g2_o21ai_1_A1_Y
+ i_snitch.i_snitch_regfile.mem\[455\]_sg13g2_nand2_1_A_Y i_snitch.i_snitch_regfile.mem\[391\]_sg13g2_inv_1_A_Y
+ i_snitch.i_snitch_regfile.mem\[391\]_sg13g2_inv_1_A_Y_sg13g2_a221oi_1_A1_Y net2918
+ sg13g2_a221oi_1
XFILLER_95_125 VPWR VGND sg13g2_fill_1
XFILLER_83_309 VPWR VGND sg13g2_fill_1
XFILLER_49_575 VPWR VGND sg13g2_fill_1
XFILLER_49_564 VPWR VGND sg13g2_decap_8
XFILLER_3_1018 VPWR VGND sg13g2_decap_8
XFILLER_92_843 VPWR VGND sg13g2_decap_8
Xi_snitch.i_snitch_regfile.mem\[352\]_sg13g2_dfrbpq_1_Q_D_sg13g2_o21ai_1_Y i_snitch.i_snitch_regfile.mem\[352\]_sg13g2_dfrbpq_1_Q_D_sg13g2_o21ai_1_Y_B1
+ VPWR i_snitch.i_snitch_regfile.mem\[352\]_sg13g2_dfrbpq_1_Q_D VGND net2522 net2393
+ sg13g2_o21ai_1
Xi_snitch.i_snitch_regfile.mem\[303\]_sg13g2_inv_1_A_Y_sg13g2_o21ai_1_A1 i_snitch.i_snitch_regfile.mem\[271\]_sg13g2_a21oi_1_A1_Y
+ VPWR i_snitch.i_snitch_regfile.mem\[303\]_sg13g2_inv_1_A_Y_sg13g2_o21ai_1_A1_Y VGND
+ i_snitch.i_snitch_regfile.mem\[303\]_sg13g2_inv_1_A_Y net3029 sg13g2_o21ai_1
XFILLER_44_280 VPWR VGND sg13g2_fill_1
Xi_snitch.i_snitch_regfile.mem\[157\]_sg13g2_mux4_1_A0_X_sg13g2_nor2_1_B net2819 i_snitch.i_snitch_regfile.mem\[157\]_sg13g2_mux4_1_A0_X
+ i_snitch.i_snitch_regfile.mem\[157\]_sg13g2_mux4_1_A0_X_sg13g2_nor2_1_B_Y VPWR VGND
+ sg13g2_nor2_1
Xi_snitch.i_snitch_regfile.mem\[509\]_sg13g2_a22oi_1_A1 i_snitch.i_snitch_regfile.mem\[509\]_sg13g2_dfrbpq_1_Q_D_sg13g2_nand2_1_Y_B
+ net2458 net2250 net2369 net1267 VPWR VGND sg13g2_a22oi_1
XFILLER_66_0 VPWR VGND sg13g2_fill_2
XFILLER_9_693 VPWR VGND sg13g2_decap_8
Xi_req_arb.gen_arbiter.req_d\[1\]_sg13g2_or2_1_X_B_sg13g2_nor4_1_Y_C_sg13g2_a21o_1_X_A2_sg13g2_nor2b_1_Y_B_N_sg13g2_nand4_1_D_Y_sg13g2_nor3_1_C
+ i_req_arb.gen_arbiter.req_d\[1\]_sg13g2_or2_1_X_B_sg13g2_nor4_1_Y_C_sg13g2_a21o_1_X_A2_sg13g2_nor2b_1_Y_B_N_sg13g2_nand4_1_D_Y_sg13g2_nor3_1_C_A
+ i_req_arb.gen_arbiter.req_d\[1\]_sg13g2_or2_1_X_B_sg13g2_nor4_1_Y_C_sg13g2_a21o_1_X_A2_sg13g2_nor2b_1_Y_B_N_sg13g2_nand4_1_D_Y
+ i_req_arb.gen_arbiter.req_d\[1\]_sg13g2_or2_1_X_B_sg13g2_nor4_1_Y_C_sg13g2_a21o_1_X_A2_sg13g2_nor2b_1_Y_B_N_sg13g2_nand4_1_D_Y_sg13g2_nor3_1_C_B
+ i_req_arb.gen_arbiter.req_d\[1\]_sg13g2_or2_1_X_B_sg13g2_nor4_1_Y_C_sg13g2_a21o_1_X_A2_sg13g2_nor2b_1_Y_B_N_sg13g2_nand4_1_D_Y_sg13g2_nor3_1_C_Y
+ VPWR VGND sg13g2_nor3_2
Xi_snitch.i_snitch_regfile.mem\[404\]_sg13g2_dfrbpq_1_Q net3318 VGND VPWR i_snitch.i_snitch_regfile.mem\[404\]_sg13g2_dfrbpq_1_Q_D
+ i_snitch.i_snitch_regfile.mem\[404\] clknet_leaf_58_clk sg13g2_dfrbpq_1
XFILLER_99_442 VPWR VGND sg13g2_fill_2
XFILLER_99_431 VPWR VGND sg13g2_fill_2
Xi_snitch.pc_d\[26\]_sg13g2_a21oi_1_Y_B1_sg13g2_a221oi_1_Y_B1_sg13g2_nand2_1_Y_A_sg13g2_a22oi_1_Y_A2_sg13g2_xor2_1_X_B_sg13g2_a221oi_1_Y_C1_sg13g2_nor2_1_Y
+ i_snitch.i_snitch_regfile.mem\[153\]_sg13g2_mux4_1_A0_1_X_sg13g2_o21ai_1_A2_Y_sg13g2_nor3_1_C_Y_sg13g2_a221oi_1_C1_Y
+ i_snitch.pc_d\[25\]_sg13g2_a21oi_1_Y_B1_sg13g2_a221oi_1_Y_B1_sg13g2_nor2_1_Y_B_sg13g2_nor2_1_Y_B_sg13g2_xor2_1_X_A_sg13g2_xor2_1_X_B
+ i_snitch.pc_d\[26\]_sg13g2_a21oi_1_Y_B1_sg13g2_a221oi_1_Y_B1_sg13g2_nand2_1_Y_A_sg13g2_a22oi_1_Y_A2_sg13g2_xor2_1_X_B_sg13g2_a221oi_1_Y_C1
+ VPWR VGND sg13g2_nor2_1
XFILLER_102_926 VPWR VGND sg13g2_decap_8
XFILLER_99_497 VPWR VGND sg13g2_fill_2
XFILLER_101_425 VPWR VGND sg13g2_decap_8
XFILLER_87_659 VPWR VGND sg13g2_fill_2
XFILLER_74_309 VPWR VGND sg13g2_fill_2
XFILLER_83_821 VPWR VGND sg13g2_decap_8
Xi_snitch.i_snitch_regfile.mem\[152\]_sg13g2_mux4_1_A0_1_X_sg13g2_o21ai_1_A2_Y_sg13g2_nor3_1_C_Y_sg13g2_a221oi_1_C1
+ VPWR VGND i_inst_register.spill_register_flushable_i.gen_spill_reg.b_data_q\[24\]_sg13g2_mux2_1_A1_1_X
+ i_snitch.i_snitch_regfile.mem\[152\]_sg13g2_mux4_1_A0_1_X_sg13g2_o21ai_1_A2_Y_sg13g2_nor3_1_C_Y
+ net2849 net3074 i_snitch.i_snitch_regfile.mem\[152\]_sg13g2_mux4_1_A0_1_X_sg13g2_o21ai_1_A2_Y_sg13g2_nor3_1_C_Y_sg13g2_a221oi_1_C1_Y
+ net2753 sg13g2_a221oi_1
Xi_snitch.i_snitch_regfile.mem\[126\]_sg13g2_inv_1_A VPWR i_snitch.i_snitch_regfile.mem\[126\]_sg13g2_inv_1_A_Y
+ i_snitch.i_snitch_regfile.mem\[126\] VGND sg13g2_inv_1
XFILLER_28_726 VPWR VGND sg13g2_decap_4
XFILLER_103_35 VPWR VGND sg13g2_decap_8
XFILLER_83_865 VPWR VGND sg13g2_decap_8
Xrsp_data_q\[28\]_sg13g2_dfrbpq_1_Q_D_sg13g2_inv_1_Y VPWR rsp_data_q\[28\]_sg13g2_dfrbpq_1_Q_D
+ net1052 VGND sg13g2_inv_1
Xi_req_register.spill_register_flushable_i.gen_spill_reg.b_data_q\[44\]_sg13g2_dfrbpq_1_Q
+ net3200 VGND VPWR net431 i_req_register.spill_register_flushable_i.gen_spill_reg.b_data_q\[44\]
+ clknet_leaf_27_clk sg13g2_dfrbpq_1
XFILLER_43_729 VPWR VGND sg13g2_decap_8
XFILLER_51_751 VPWR VGND sg13g2_fill_1
Xi_req_register.spill_register_flushable_i.gen_spill_reg.a_data_q\[22\]_sg13g2_dfrbpq_1_Q_D_sg13g2_o21ai_1_Y
+ i_req_register.spill_register_flushable_i.gen_spill_reg.a_data_q\[22\]_sg13g2_dfrbpq_1_Q_D_sg13g2_o21ai_1_Y_B1
+ VPWR i_req_register.spill_register_flushable_i.gen_spill_reg.a_data_q\[22\]_sg13g2_dfrbpq_1_Q_D
+ VGND net2426 i_req_register.spill_register_flushable_i.gen_spill_reg.a_data_q\[22\]_sg13g2_dfrbpq_1_Q_D_sg13g2_o21ai_1_Y_A2
+ sg13g2_o21ai_1
Xdata_pdata\[21\]_sg13g2_mux2_1_A0_X_sg13g2_inv_1_A VPWR data_pdata\[21\]_sg13g2_mux2_1_A0_X_sg13g2_inv_1_A_Y
+ data_pdata\[21\]_sg13g2_mux2_1_A0_X VGND sg13g2_inv_1
XFILLER_7_619 VPWR VGND sg13g2_fill_1
XFILLER_12_21 VPWR VGND sg13g2_decap_8
Xi_snitch.i_snitch_regfile.mem\[394\]_sg13g2_a22oi_1_A1 i_snitch.i_snitch_regfile.mem\[394\]_sg13g2_dfrbpq_1_Q_D_sg13g2_nand2_1_Y_B
+ net2468 net2283 net2389 net1251 VPWR VGND sg13g2_a22oi_1
XFILLER_3_836 VPWR VGND sg13g2_decap_8
Xfanout3006 net3011 net3006 VPWR VGND sg13g2_buf_8
Xfanout3028 net3031 net3028 VPWR VGND sg13g2_buf_8
Xfanout3017 net3018 net3017 VPWR VGND sg13g2_buf_8
Xfanout2305 net2307 net2305 VPWR VGND sg13g2_buf_8
XFILLER_5_4 VPWR VGND sg13g2_decap_8
Xfanout3039 data_pvalid_sg13g2_nand2b_1_B_Y_sg13g2_nor4_1_C_Y net3039 VPWR VGND sg13g2_buf_8
Xfanout2316 net2320 net2316 VPWR VGND sg13g2_buf_8
XFILLER_104_252 VPWR VGND sg13g2_decap_8
XFILLER_78_637 VPWR VGND sg13g2_decap_8
Xi_snitch.i_snitch_regfile.mem\[74\]_sg13g2_nand2_1_A i_snitch.i_snitch_regfile.mem\[74\]_sg13g2_nand2_1_A_Y
+ i_snitch.i_snitch_regfile.mem\[74\] net2995 VPWR VGND sg13g2_nand2_1
Xfanout2327 i_snitch.sb_d\[8\]_sg13g2_o21ai_1_Y_A2_sg13g2_nor2_1_A_Y_sg13g2_nor2_1_B_Y
+ net2327 VPWR VGND sg13g2_buf_8
Xfanout2338 net2339 net2338 VPWR VGND sg13g2_buf_8
Xfanout2349 net2352 net2349 VPWR VGND sg13g2_buf_8
XFILLER_78_659 VPWR VGND sg13g2_decap_8
XFILLER_77_114 VPWR VGND sg13g2_fill_1
Xi_req_arb.gen_arbiter.req_d\[1\]_sg13g2_or2_1_X_B_sg13g2_nor4_1_Y_C_sg13g2_nor2_1_B
+ i_inst_register.spill_register_flushable_i.gen_spill_reg.b_full_q_sg13g2_dfrbpq_1_Q_D_sg13g2_nor2_1_Y_A_sg13g2_or3_1_C_X_sg13g2_a21o_1_B1_X
+ i_req_arb.gen_arbiter.req_d\[1\]_sg13g2_or2_1_X_B_sg13g2_nor4_1_Y_C i_req_arb.gen_arbiter.req_d\[1\]_sg13g2_or2_1_X_B_sg13g2_nor4_1_Y_C_sg13g2_nor2_1_B_Y
+ VPWR VGND sg13g2_nor2_1
XFILLER_74_843 VPWR VGND sg13g2_fill_1
XFILLER_74_821 VPWR VGND sg13g2_decap_8
XFILLER_46_534 VPWR VGND sg13g2_decap_4
XFILLER_18_214 VPWR VGND sg13g2_decap_8
XFILLER_37_51 VPWR VGND sg13g2_fill_2
Xi_snitch.i_snitch_regfile.mem\[308\]_sg13g2_inv_1_A_Y_sg13g2_a221oi_1_A1_Y_sg13g2_o21ai_1_A1
+ i_snitch.i_snitch_regfile.mem\[52\]_sg13g2_a22oi_1_A1_Y_sg13g2_a21oi_1_A2_Y VPWR
+ i_snitch.i_snitch_regfile.mem\[308\]_sg13g2_inv_1_A_Y_sg13g2_a221oi_1_A1_Y_sg13g2_o21ai_1_A1_Y
+ VGND i_snitch.i_snitch_regfile.mem\[308\]_sg13g2_inv_1_A_Y_sg13g2_a221oi_1_A1_Y
+ i_snitch.i_snitch_regfile.mem\[404\]_sg13g2_mux4_1_A0_X_sg13g2_a21o_1_A2_X sg13g2_o21ai_1
Xi_snitch.i_snitch_regfile.mem\[200\]_sg13g2_dfrbpq_1_Q_D_sg13g2_o21ai_1_Y i_snitch.i_snitch_regfile.mem\[200\]_sg13g2_dfrbpq_1_Q_D_sg13g2_o21ai_1_Y_B1
+ VPWR i_snitch.i_snitch_regfile.mem\[200\]_sg13g2_dfrbpq_1_Q_D VGND net2278 net2334
+ sg13g2_o21ai_1
Xi_req_register.spill_register_flushable_i.gen_spill_reg.b_data_q\[35\]_sg13g2_inv_1_A
+ VPWR i_req_register.spill_register_flushable_i.gen_spill_reg.b_data_q\[35\]_sg13g2_inv_1_A_Y
+ net436 VGND sg13g2_inv_1
XFILLER_74_887 VPWR VGND sg13g2_decap_4
XFILLER_46_578 VPWR VGND sg13g2_decap_8
XFILLER_27_781 VPWR VGND sg13g2_fill_2
Xi_inst_register.spill_register_flushable_i.gen_spill_reg.b_data_q\[0\]_sg13g2_nand3_1_A_Y_sg13g2_a22oi_1_A1_Y_sg13g2_nand4_1_B_A_sg13g2_nor3_1_B_Y_sg13g2_a221oi_1_A2_Y_sg13g2_nand3_1_C
+ net2747 i_inst_register.spill_register_flushable_i.gen_spill_reg.b_data_q\[0\]_sg13g2_nand3_1_A_Y_sg13g2_a22oi_1_A1_Y_sg13g2_nand4_1_B_A_sg13g2_nor3_1_B_Y_sg13g2_a221oi_1_A2_Y
+ i_snitch.i_snitch_regfile.mem\[34\]_sg13g2_a221oi_1_A1_Y_sg13g2_nor3_1_B_Y_sg13g2_o21ai_1_B1_A1_sg13g2_nand2_1_Y_A_sg13g2_nand4_1_A_B
+ i_inst_register.spill_register_flushable_i.gen_spill_reg.b_data_q\[0\]_sg13g2_nand3_1_A_Y_sg13g2_a22oi_1_A1_Y_sg13g2_nand4_1_B_A_sg13g2_nor3_1_B_Y_sg13g2_a221oi_1_A2_Y_sg13g2_nand3_1_C_Y
+ VPWR VGND sg13g2_nand3_1
Xi_snitch.i_snitch_lsu.metadata_q\[4\]_sg13g2_o21ai_1_A1_B1_sg13g2_nand3_1_Y_A_sg13g2_nand3_1_B_Y_sg13g2_nor4_1_A
+ i_snitch.i_snitch_lsu.metadata_q\[4\]_sg13g2_o21ai_1_A1_B1_sg13g2_nand3_1_Y_A_sg13g2_nand3_1_B_Y_sg13g2_nor4_1_A_D
+ i_snitch.i_snitch_lsu.metadata_q\[4\]_sg13g2_o21ai_1_A1_B1_sg13g2_nand3_1_Y_A_sg13g2_nand3_1_B_Y_sg13g2_nor4_1_A_B
+ i_snitch.i_snitch_lsu.metadata_q\[4\]_sg13g2_o21ai_1_A1_B1_sg13g2_nand3_1_Y_A_sg13g2_nand3_1_B_Y_sg13g2_nor4_1_A_C
+ i_snitch.i_snitch_lsu.metadata_q\[4\]_sg13g2_o21ai_1_A1_B1_sg13g2_nand3_1_Y_A_sg13g2_nand3_1_B_Y_sg13g2_nor4_1_A_Y
+ VGND VPWR i_snitch.i_snitch_lsu.metadata_q\[4\]_sg13g2_o21ai_1_A1_B1_sg13g2_nand3_1_Y_A_sg13g2_nand3_1_B_Y
+ sg13g2_nor4_2
XFILLER_53_94 VPWR VGND sg13g2_fill_2
Xi_snitch.i_snitch_regfile.mem\[424\]_sg13g2_dfrbpq_1_Q net3279 VGND VPWR i_snitch.i_snitch_regfile.mem\[424\]_sg13g2_dfrbpq_1_Q_D
+ i_snitch.i_snitch_regfile.mem\[424\] clknet_leaf_74_clk sg13g2_dfrbpq_1
XFILLER_14_497 VPWR VGND sg13g2_fill_1
Xi_snitch.pc_d\[21\]_sg13g2_a21oi_1_Y_B1_sg13g2_a221oi_1_Y_B1_sg13g2_nand3_1_Y_A_sg13g2_nand2_1_Y
+ i_snitch.pc_d\[21\]_sg13g2_a21oi_1_Y_B1_sg13g2_a221oi_1_Y_B1_sg13g2_nand3_1_Y_A
+ net2706 i_snitch.pc_d\[21\]_sg13g2_a21oi_1_Y_B1_sg13g2_a221oi_1_Y_B1_sg13g2_nand3_1_Y_A_sg13g2_nand2_1_Y_B
+ VPWR VGND sg13g2_nand2_1
Xi_snitch.i_snitch_regfile.mem\[213\]_sg13g2_a22oi_1_B2 i_snitch.i_snitch_regfile.mem\[213\]_sg13g2_dfrbpq_1_Q_D_sg13g2_nand2_1_Y_B
+ net2336 net1132 net2441 net2268 VPWR VGND sg13g2_a22oi_1
XFILLER_6_685 VPWR VGND sg13g2_decap_8
XFILLER_5_162 VPWR VGND sg13g2_fill_2
XFILLER_5_151 VPWR VGND sg13g2_decap_8
Xi_req_register.spill_register_flushable_i.gen_spill_reg.a_data_q\[29\]_sg13g2_dfrbpq_1_Q_D_sg13g2_o21ai_1_Y_A2_sg13g2_a21oi_1_Y_A2_sg13g2_o21ai_1_Y_B1_sg13g2_a22oi_1_Y
+ i_req_register.spill_register_flushable_i.gen_spill_reg.a_data_q\[29\]_sg13g2_dfrbpq_1_Q_D_sg13g2_o21ai_1_Y_A2_sg13g2_a21oi_1_Y_A2_sg13g2_o21ai_1_Y_B1
+ i_snitch.i_snitch_regfile.mem\[47\]_sg13g2_a21oi_1_A1_Y_sg13g2_a221oi_1_B2_Y_sg13g2_and2_1_A_X
+ net2500 i_snitch.i_snitch_regfile.mem\[63\]_sg13g2_a22oi_1_A1_Y_sg13g2_a21oi_1_A2_Y_sg13g2_and2_1_A_X
+ net2481 VPWR VGND sg13g2_a22oi_1
Xi_req_register.spill_register_flushable_i.gen_spill_reg.b_data_q\[28\]_sg13g2_mux2_1_A1
+ i_req_register.spill_register_flushable_i.gen_spill_reg.a_data_q\[28\] net610 net2621
+ i_req_register.spill_register_flushable_i.gen_spill_reg.b_data_q\[28\]_sg13g2_dfrbpq_1_Q_D
+ VPWR VGND sg13g2_mux2_1
Xi_snitch.pc_d\[11\]_sg13g2_a22oi_1_Y_B2_sg13g2_a21oi_1_Y VGND VPWR net2759 i_snitch.pc_d\[11\]_sg13g2_a22oi_1_Y_B2_sg13g2_a21oi_1_Y_A2
+ i_snitch.pc_d\[11\]_sg13g2_a22oi_1_Y_B2 net2307 sg13g2_a21oi_1
XFILLER_69_626 VPWR VGND sg13g2_fill_1
XFILLER_97_957 VPWR VGND sg13g2_decap_8
Xfanout2850 i_inst_register.spill_register_flushable_i.gen_spill_reg.b_data_q\[0\]_sg13g2_nand3_1_A_Y_sg13g2_a221oi_1_A1_Y_sg13g2_and3_1_C_X
+ net2850 VPWR VGND sg13g2_buf_1
XFILLER_69_659 VPWR VGND sg13g2_fill_2
XFILLER_2_880 VPWR VGND sg13g2_decap_8
Xfanout2872 net2873 net2872 VPWR VGND sg13g2_buf_8
Xfanout2861 net2865 net2861 VPWR VGND sg13g2_buf_8
Xi_snitch.i_snitch_regfile.mem\[256\]_sg13g2_inv_1_A VPWR i_snitch.i_snitch_regfile.mem\[256\]_sg13g2_inv_1_A_Y
+ i_snitch.i_snitch_regfile.mem\[256\] VGND sg13g2_inv_1
XFILLER_49_350 VPWR VGND sg13g2_fill_1
Xfanout2894 net2896 net2894 VPWR VGND sg13g2_buf_8
Xfanout2883 net2884 net2883 VPWR VGND sg13g2_buf_8
XFILLER_92_684 VPWR VGND sg13g2_decap_4
Xi_req_register.spill_register_flushable_i.gen_spill_reg.b_data_q\[30\]_sg13g2_mux2_1_A1_1
+ i_req_register.spill_register_flushable_i.gen_spill_reg.a_data_q\[30\] i_req_register.spill_register_flushable_i.gen_spill_reg.b_data_q\[30\]
+ net3171 i_req_register.spill_register_flushable_i.gen_spill_reg.b_data_q\[30\]_sg13g2_mux2_1_A1_1_X
+ VPWR VGND sg13g2_mux2_1
XFILLER_65_887 VPWR VGND sg13g2_fill_1
Xi_req_arb.gen_arbiter.req_d\[1\]_sg13g2_or2_1_X_B_sg13g2_nor4_1_Y_C_sg13g2_a21o_1_X_B1_sg13g2_a21oi_1_Y_B1_sg13g2_a21oi_1_Y_B1_sg13g2_a221oi_1_C1
+ VPWR VGND i_req_arb.gen_arbiter.req_d\[1\]_sg13g2_or2_1_X_B_sg13g2_nor4_1_Y_C_sg13g2_a21o_1_X_B1_sg13g2_a21oi_1_Y_B1_sg13g2_a21oi_1_Y_B1_sg13g2_a221oi_1_C1_B1
+ i_req_arb.gen_arbiter.req_d\[1\]_sg13g2_or2_1_X_B_sg13g2_nor4_1_Y_C_sg13g2_a21o_1_X_B1_sg13g2_a21oi_1_Y_B1_sg13g2_a21oi_1_Y_B1
+ i_snitch.pc_d\[0\]_sg13g2_nand2_1_Y_B_sg13g2_nand3_1_Y_B i_req_arb.gen_arbiter.req_d\[1\]_sg13g2_or2_1_X_B_sg13g2_nor4_1_Y_C_sg13g2_a21o_1_X_B1_sg13g2_a21oi_1_Y_B1_sg13g2_a21oi_1_Y_B1_sg13g2_a221oi_1_C1_A1
+ i_req_arb.gen_arbiter.req_d\[1\]_sg13g2_or2_1_X_B_sg13g2_nor4_1_Y_C_sg13g2_a21o_1_X_B1_sg13g2_a21oi_1_Y_B1_sg13g2_a21oi_1_Y_B1_sg13g2_a221oi_1_C1_Y
+ i_req_arb.gen_arbiter.req_d\[1\]_sg13g2_or2_1_X_B_sg13g2_nor4_1_Y_C_sg13g2_a21o_1_X_B1_sg13g2_a21oi_1_Y_B1_sg13g2_a21oi_1_Y_B1_sg13g2_a221oi_1_C1_A2
+ sg13g2_a221oi_1
Xi_snitch.i_snitch_regfile.mem\[104\]_sg13g2_o21ai_1_A1 i_snitch.i_snitch_regfile.mem\[72\]_sg13g2_inv_1_A_Y_sg13g2_a21oi_1_A1_Y
+ VPWR i_snitch.i_snitch_regfile.mem\[104\]_sg13g2_o21ai_1_A1_Y VGND i_snitch.i_snitch_regfile.mem\[104\]
+ net2952 sg13g2_o21ai_1
Xi_snitch.i_snitch_regfile.mem\[421\]_sg13g2_dfrbpq_1_Q_D_sg13g2_a221oi_1_Y VPWR VGND
+ net2407 i_snitch.i_snitch_regfile.mem\[421\]_sg13g2_dfrbpq_1_Q_D_sg13g2_a221oi_1_Y_C1
+ net2465 net2860 i_snitch.i_snitch_regfile.mem\[421\]_sg13g2_dfrbpq_1_Q_D net2905
+ sg13g2_a221oi_1
XFILLER_21_913 VPWR VGND sg13g2_decap_8
Xi_inst_register.spill_register_flushable_i.gen_spill_reg.b_data_q\[13\]_sg13g2_nand2_1_B_Y_sg13g2_and2_1_A_X_sg13g2_a221oi_1_B2_B1_sg13g2_and4_1_X
+ net3035 net3141 net108 i_inst_register.spill_register_flushable_i.gen_spill_reg.b_data_q\[13\]_sg13g2_nand2_1_B_Y_sg13g2_and2_1_A_X_sg13g2_a221oi_1_B2_B1_sg13g2_and4_1_X_D
+ i_inst_register.spill_register_flushable_i.gen_spill_reg.b_data_q\[13\]_sg13g2_nand2_1_B_Y_sg13g2_and2_1_A_X_sg13g2_a221oi_1_B2_B1
+ VPWR VGND sg13g2_and4_1
XFILLER_71_1028 VPWR VGND sg13g2_fill_1
XFILLER_21_924 VPWR VGND sg13g2_fill_2
Xclkbuf_4_12_0_clk clknet_0_clk clknet_4_12_0_clk VPWR VGND sg13g2_buf_8
XFILLER_106_506 VPWR VGND sg13g2_fill_2
XFILLER_88_924 VPWR VGND sg13g2_decap_8
XFILLER_0_828 VPWR VGND sg13g2_decap_8
XFILLER_101_266 VPWR VGND sg13g2_decap_8
Xi_snitch.pc_d\[30\]_sg13g2_a21oi_1_Y_B1_sg13g2_a221oi_1_Y_B1_sg13g2_a21oi_1_Y_A2_sg13g2_xnor2_1_Y_A_sg13g2_o21ai_1_A1
+ i_snitch.pc_d\[30\]_sg13g2_a21oi_1_Y_B1_sg13g2_a221oi_1_Y_B1_sg13g2_a21oi_1_Y_A2_sg13g2_xnor2_1_Y_A_sg13g2_o21ai_1_A1_B1
+ VPWR i_snitch.pc_d\[31\]_sg13g2_a21oi_1_Y_B1_sg13g2_a221oi_1_Y_B1_sg13g2_a22oi_1_Y_A2_sg13g2_inv_1_Y_A_sg13g2_xnor2_1_Y_B
+ VGND i_snitch.pc_d\[30\]_sg13g2_a21oi_1_Y_B1_sg13g2_a221oi_1_Y_B1_sg13g2_a21oi_1_Y_A2_sg13g2_xnor2_1_Y_B
+ i_snitch.pc_d\[30\]_sg13g2_a21oi_1_Y_B1_sg13g2_a221oi_1_Y_B1_sg13g2_a21oi_1_Y_A2_sg13g2_xnor2_1_Y_A
+ sg13g2_o21ai_1
Xi_snitch.i_snitch_regfile.mem\[444\]_sg13g2_dfrbpq_1_Q net3267 VGND VPWR i_snitch.i_snitch_regfile.mem\[444\]_sg13g2_dfrbpq_1_Q_D
+ i_snitch.i_snitch_regfile.mem\[444\] clknet_leaf_96_clk sg13g2_dfrbpq_1
Xi_snitch.pc_d\[29\]_sg13g2_a21oi_1_Y_B1_sg13g2_a221oi_1_Y_B1_sg13g2_a21oi_1_Y_B1_sg13g2_a221oi_1_Y_B1_sg13g2_o21ai_1_Y_B1_sg13g2_or2_1_X_A_sg13g2_a21oi_1_Y_B1_sg13g2_o21ai_1_Y
+ net2581 VPWR i_snitch.pc_d\[29\]_sg13g2_a21oi_1_Y_B1_sg13g2_a221oi_1_Y_B1_sg13g2_a21oi_1_Y_B1_sg13g2_a221oi_1_Y_B1_sg13g2_o21ai_1_Y_B1_sg13g2_or2_1_X_A_sg13g2_a21oi_1_Y_B1
+ VGND net2594 i_snitch.pc_d\[6\]_sg13g2_mux2_1_X_A1_sg13g2_a21o_1_X_B1_sg13g2_nor2_1_Y_B_sg13g2_a221oi_1_Y_B1_sg13g2_inv_1_Y_A_sg13g2_a22oi_1_Y_A2_sg13g2_a21oi_1_Y_A1_sg13g2_or2_1_X_B
+ sg13g2_o21ai_1
XFILLER_55_342 VPWR VGND sg13g2_fill_2
Xi_req_register.spill_register_flushable_i.gen_spill_reg.b_data_q\[3\]_sg13g2_inv_1_A
+ VPWR i_req_register.spill_register_flushable_i.gen_spill_reg.b_data_q\[3\]_sg13g2_inv_1_A_Y
+ i_req_register.spill_register_flushable_i.gen_spill_reg.b_data_q\[3\] VGND sg13g2_inv_1
Xi_snitch.i_snitch_regfile.mem\[233\]_sg13g2_a22oi_1_B2 i_snitch.i_snitch_regfile.mem\[233\]_sg13g2_dfrbpq_1_Q_D_sg13g2_o21ai_1_Y_B1
+ net2333 net1032 net2686 net2874 VPWR VGND sg13g2_a22oi_1
Xi_snitch.pc_d\[5\]_sg13g2_o21ai_1_Y_A2_sg13g2_a22oi_1_Y_A2_sg13g2_nand2_1_Y_A_sg13g2_a22oi_1_Y_B1_sg13g2_o21ai_1_Y_A2_sg13g2_o21ai_1_Y_A2_sg13g2_mux2_1_X_A1_sg13g2_mux2_1_X_A1_sg13g2_mux2_1_X_A1_sg13g2_a21oi_1_Y_B1_sg13g2_nor2_1_Y
+ net2704 i_snitch.i_snitch_regfile.mem\[150\]_sg13g2_mux4_1_A0_1_X_sg13g2_o21ai_1_A2_Y_sg13g2_nor3_1_C_Y_sg13g2_a21oi_1_B1_Y_sg13g2_nand2_1_B_Y
+ i_snitch.pc_d\[5\]_sg13g2_o21ai_1_Y_A2_sg13g2_a22oi_1_Y_A2_sg13g2_nand2_1_Y_A_sg13g2_a22oi_1_Y_B1_sg13g2_o21ai_1_Y_A2_sg13g2_o21ai_1_Y_A2_sg13g2_mux2_1_X_A1_sg13g2_mux2_1_X_A1_sg13g2_mux2_1_X_A1_sg13g2_a21oi_1_Y_B1
+ VPWR VGND sg13g2_nor2_1
XFILLER_70_323 VPWR VGND sg13g2_fill_1
Xi_snitch.i_snitch_regfile.mem\[418\]_sg13g2_dfrbpq_1_Q_D_sg13g2_a221oi_1_Y VPWR VGND
+ net2484 i_snitch.i_snitch_regfile.mem\[418\]_sg13g2_dfrbpq_1_Q_D_sg13g2_a221oi_1_Y_C1
+ net2465 net2865 i_snitch.i_snitch_regfile.mem\[418\]_sg13g2_dfrbpq_1_Q_D net2911
+ sg13g2_a221oi_1
Xi_snitch.pc_d\[28\]_sg13g2_a21oi_1_Y_B1_sg13g2_a221oi_1_Y_B1_sg13g2_nand2_1_Y_B_sg13g2_a221oi_1_Y_A2_sg13g2_a21oi_1_A2
+ VGND VPWR net2544 i_snitch.pc_d\[28\]_sg13g2_a21oi_1_Y_B1_sg13g2_a221oi_1_Y_B1_sg13g2_nand2_1_Y_B_sg13g2_a221oi_1_Y_A2